
 OpenBabel12102016063D

  0  0  0     0  0            999 V3000
M  V30 BEGIN CTAB
M  V30 COUNTS 36 38 0 0 1
M  V30 BEGIN ATOM
M  V30 1 C 1.00081e-312 1.00081e-312 3.41769e-317 0
M  V30 2 C -4.34776e-314 -4.35153e-314 -7.14002e-318 0
M  V30 3 C -4.35166e-314 -4.35152e-314 -4.85768e-318 0
M  V30 4 C -4.3519e-314 -4.35152e-314 -4.75041e-318 0
M  V30 5 C -4.3519e-314 -4.35152e-314 -4.77665e-318 0
M  V30 6 H -4.35166e-314 -4.35152e-314 -4.78637e-318 0
M  V30 7 C -4.35166e-314 -4.35152e-314 -4.75041e-318 0
M  V30 8 H -4.35166e-314 -4.35152e-314 -4.76479e-318 0
M  V30 9 C -4.35166e-314 -4.35152e-314 -4.76479e-318 0
M  V30 10 H -4.35166e-314 -4.35152e-314 -4.77665e-318 0
M  V30 11 C -4.35166e-314 -4.35152e-314 -4.78637e-318 0
M  V30 12 H -4.35166e-314 -4.35152e-314 3.41722e-317 0
M  V30 13 C -4.35166e-314 -4.35152e-314 -4.76258e-318 0
M  V30 14 C -4.35166e-314 -4.35152e-314 -4.76479e-318 0
M  V30 15 C -4.35166e-314 -4.35152e-314 -4.77665e-318 0
M  V30 16 O -4.35166e-314 -4.35152e-314 -4.74819e-318 0
M  V30 17 O -4.35166e-314 -4.35152e-314 -4.76258e-318 0
M  V30 18 C -4.35166e-314 -4.35152e-314 -4.76479e-318 0
M  V30 19 O -4.35166e-314 -4.35152e-314 -4.76369e-318 0
M  V30 20 C -4.35166e-314 -4.35152e-314 -4.74819e-318 0
M  V30 21 C -4.34776e-314 -4.35152e-314 -4.76258e-318 0
M  V30 22 C -4.35166e-314 -4.34762e-314 -4.76479e-318 0
M  V30 23 O -4.35166e-314 -4.35152e-314 3.41722e-317 0
M  V30 24 O -4.35166e-314 -4.35152e-314 -4.74819e-318 0
M  V30 25 H -4.35173e-320 -4.35173e-320 -4.94066e-324 0
M  V30 26 H -4.35173e-320 -4.35173e-320 -4.94066e-324 0
M  V30 27 H -4.35173e-320 -4.35173e-320 -4.94066e-324 0
M  V30 28 H 0 0 0 0
M  V30 29 H 0 0 0 0
M  V30 30 H 0 0 0 0
M  V30 31 H 0 0 0 0
M  V30 32 H 0 0 0 0
M  V30 33 H 0 0 0 0
M  V30 34 H 0 0 0 0
M  V30 35 H 0 0 0 0
M  V30 36 H 0 0 0 0
M  V30 END ATOM
M  V30 BEGIN BOND
M  V30 1 2 1 2
M  V30 2 1 1 25
M  V30 3 1 1 26
M  V30 4 1 2 3
M  V30 5 1 2 27
M  V30 6 1 3 4
M  V30 7 1 3 11
M  V30 8 1 3 18
M  V30 9 1 4 5
M  V30 10 1 4 28
M  V30 11 1 4 29
M  V30 12 1 5 6
M  V30 13 1 5 7
M  V30 14 1 5 24
M  V30 15 1 7 8
M  V30 16 1 7 9
M  V30 17 1 7 20
M  V30 18 1 9 11
M  V30 19 1 9 19
M  V30 20 1 9 10
M  V30 21 1 11 12
M  V30 22 1 11 13
M  V30 23 2 13 14
M  V30 24 1 13 15
M  V30 25 1 14 30
M  V30 26 1 14 31
M  V30 27 2 15 16
M  V30 28 1 15 17
M  V30 29 1 17 18
M  V30 30 1 18 32
M  V30 31 1 18 33
M  V30 32 1 19 34
M  V30 33 2 20 21
M  V30 34 1 20 22
M  V30 35 1 21 35
M  V30 36 1 21 36
M  V30 37 2 22 23
M  V30 38 1 22 24
M  V30 END BOND
M  V30 END CTAB
M  END
