
 OpenBabel11262018343D

  0  0  0     0  0            999 V3000
M  V30 BEGIN CTAB
M  V30 COUNTS 9 8 0 0 0
M  V30 BEGIN ATOM
M  V30 1 N 1.21174 -0.073095 0.0437643 0
M  V30 2 C 2.36909 -0.0728775 0.0444347 0
M  V30 3 B 3.91427 -0.0725918 0.044796 0 CHG=-1
M  V30 4 C 4.42934 1.09964 0.910051 0
M  V30 5 C 4.42915 -1.40819 0.626918 0
M  V30 6 C 4.42902 0.0903751 -1.40299 0
M  V30 7 N 4.81495 1.97778 1.55787 0
M  V30 8 N 4.81461 -2.40873 1.06264 0
M  V30 9 N 4.81419 0.212404 -2.48751 0
M  V30 END ATOM
M  V30 BEGIN BOND
M  V30 1 3 2 1
M  V30 2 1 3 2
M  V30 3 1 3 4
M  V30 4 1 3 5
M  V30 5 1 3 6
M  V30 6 3 4 7
M  V30 7 3 5 8
M  V30 8 3 6 9
M  V30 END BOND
M  V30 END CTAB
M  END
