
 OpenBabel12022010413D

  0  0  0     0  0            999 V3000
M  V30 BEGIN CTAB
M  V30 COUNTS 17 16 0 0 0
M  V30 BEGIN ATOM
M  V30 1 O 0.974801 -0.0628887 -0.00668427 0 CHG=-1
M  V30 2 O 2.35704 0.189624 0.022406 0
M  V30 3 C 3.02376 -0.750702 -0.758246 0
M  V30 4 C 2.46903 -1.6709 -1.58779 0
M  V30 5 C 4.51283 -0.625055 -0.588927 0
M  V30 6 C 3.24409 -2.67165 -2.41744 0
M  V30 7 O 1.10128 -1.81025 -1.74234 0
M  V30 8 C 2.95861 -2.54754 -3.90946 0
M  V30 9 H 4.76334 0.146341 0.147547 0
M  V30 10 H 4.98891 -0.339991 -1.53228 0
M  V30 11 H 4.94728 -1.56334 -0.229259 0
M  V30 12 H 2.97221 -3.68086 -2.08509 0
M  V30 13 H 4.32443 -2.58049 -2.26746 0
M  V30 14 H 0.674142 -1.17058 -1.12688 0
M  V30 15 H 1.89668 -2.69706 -4.13061 0
M  V30 16 H 3.52209 -3.30519 -4.46279 0
M  V30 17 H 3.2523 -1.56256 -4.2886 0
M  V30 END ATOM
M  V30 BEGIN BOND
M  V30 1 1 1 2
M  V30 2 1 2 3
M  V30 3 2 3 4
M  V30 4 1 3 5
M  V30 5 1 4 6
M  V30 6 1 4 7
M  V30 7 1 5 9
M  V30 8 1 5 10
M  V30 9 1 5 11
M  V30 10 1 6 8
M  V30 11 1 6 12
M  V30 12 1 6 13
M  V30 13 1 7 14
M  V30 14 1 8 15
M  V30 15 1 8 16
M  V30 16 1 8 17
M  V30 END BOND
M  V30 END CTAB
M  END
