
 OpenBabel12012015093D

  0  0  0     0  0            999 V3000
M  V30 BEGIN CTAB
M  V30 COUNTS 45 45 0 0 0
M  V30 BEGIN ATOM
M  V30 1 C 5.48572 -5.43885 0.139061 0
M  V30 2 C 5.64207 -4.3229 -0.264566 0
M  V30 3 C 5.83711 -3.00627 -0.773509 0
M  V30 4 C 5.69376 -1.87643 -0.0486281 0
M  V30 5 C 5.93616 -0.524682 -0.714096 0
M  V30 6 C 5.2588 -1.86973 1.3981 0
M  V30 7 C 6.60465 0.543831 0.155523 0
M  V30 8 N 8.02421 0.576171 0.298869 0 CHG=1
M  V30 9 C 5.87348 1.42573 0.795114 0
M  V30 10 C 8.67182 1.74912 0.552287 0
M  V30 11 C 8.76227 -0.562522 0.184049 0
M  V30 12 C 5.12126 2.1941 1.54837 0
M  V30 13 C 10.0607 1.80308 0.657374 0
M  V30 14 C 10.1481 -0.553058 0.300622 0
M  V30 15 C 3.80884 2.67861 1.08363 0
M  V30 16 C 5.24989 2.15218 3.05401 0
M  V30 17 C 10.8066 0.642316 0.528926 0
M  V30 18 C 2.88775 1.76616 0.70379 0
M  V30 19 C 3.50893 4.16227 1.27034 0
M  V30 20 C 1.43567 1.95823 0.394527 0
M  V30 21 C 4.4262 5.12694 0.523971 0
M  V30 22 H 5.34191 -6.43936 0.488983 0
M  V30 23 H 6.10182 -2.95348 -1.82769 0
M  V30 24 H 4.97238 -0.142903 -1.07445 0
M  V30 25 H 6.55435 -0.65279 -1.6148 0
M  V30 26 H 5.09254 -2.87097 1.80363 0
M  V30 27 H 4.32216 -1.31575 1.50623 0
M  V30 28 H 6.0214 -1.40072 2.02774 0
M  V30 29 H 8.08322 2.65934 0.631405 0
M  V30 30 H 8.2514 -1.50703 0.0343909 0
M  V30 31 H 10.5603 2.75388 0.83238 0
M  V30 32 H 10.7093 -1.48201 0.216595 0
M  V30 33 H 6.22503 1.75554 3.35639 0
M  V30 34 H 4.48168 1.49475 3.47959 0
M  V30 35 H 5.14384 3.14598 3.49751 0
M  V30 36 H 11.893 0.667306 0.609689 0
M  V30 37 H 3.16929 0.714778 0.679333 0
M  V30 38 H 3.54497 4.40235 2.33952 0
M  V30 39 H 2.4885 4.40202 0.957207 0
M  V30 40 H 1.09915 2.99478 0.427685 0
M  V30 41 H 0.842089 1.39501 1.12386 0
M  V30 42 H 1.21261 1.55951 -0.599009 0
M  V30 43 H 5.48031 4.96955 0.769076 0
M  V30 44 H 4.17461 6.15831 0.80164 0
M  V30 45 H 4.30005 5.03973 -0.55996 0
M  V30 END ATOM
M  V30 BEGIN BOND
M  V30 1 3 1 2
M  V30 2 1 1 22
M  V30 3 1 2 3
M  V30 4 2 3 4
M  V30 5 1 3 23
M  V30 6 1 4 5
M  V30 7 1 4 6
M  V30 8 1 5 7
M  V30 9 1 5 24
M  V30 10 1 5 25
M  V30 11 1 6 26
M  V30 12 1 6 27
M  V30 13 1 6 28
M  V30 14 2 7 9
M  V30 15 1 7 8
M  V30 16 2 8 10
M  V30 17 1 8 11
M  V30 18 2 9 12
M  V30 19 1 10 13
M  V30 20 1 10 29
M  V30 21 2 14 11
M  V30 22 1 11 30
M  V30 23 1 12 16
M  V30 24 1 12 15
M  V30 25 2 13 17
M  V30 26 1 13 31
M  V30 27 1 17 14
M  V30 28 1 14 32
M  V30 29 2 15 18
M  V30 30 1 15 19
M  V30 31 1 16 33
M  V30 32 1 16 34
M  V30 33 1 16 35
M  V30 34 1 17 36
M  V30 35 1 18 20
M  V30 36 1 18 37
M  V30 37 1 19 21
M  V30 38 1 19 38
M  V30 39 1 19 39
M  V30 40 1 20 40
M  V30 41 1 20 41
M  V30 42 1 20 42
M  V30 43 1 21 43
M  V30 44 1 21 44
M  V30 45 1 21 45
M  V30 END BOND
M  V30 END CTAB
M  END
