
 OpenBabel12112017273D

  0  0  0     0  0            999 V3000
M  V30 BEGIN CTAB
M  V30 COUNTS 33 32 0 0 0
M  V30 BEGIN ATOM
M  V30 1 C 3.26311 -0.701872 3.10498 0
M  V30 2 C 2.76082 -1.21067 1.97154 0
M  V30 3 C 3.30977 -1.1605 0.556682 0
M  V30 4 C 4.77573 -0.743738 0.372835 0
M  V30 5 C 5.18361 0.459112 -0.154627 0
M  V30 6 C 5.7257 -1.84463 0.569839 0 CHG=-1
M  V30 7 C 6.62851 0.873036 -0.19825 0
M  V30 8 C 4.17798 1.35612 -0.748666 0
M  V30 9 O 6.60195 -2.00499 -0.487416 0
M  V30 10 C 5.53725 -3.03624 1.45654 0
M  V30 11 C 7.27733 1.28202 -1.31846 0
M  V30 12 C 7.35145 0.863189 1.13088 0
M  V30 13 C 3.86067 2.57365 -0.295147 0
M  V30 14 O 3.65109 0.866732 -1.92854 0
M  V30 15 C 8.61975 1.81221 -1.27077 0
M  V30 16 O 6.71182 1.2262 -2.58512 0
M  V30 17 N 9.69244 2.24512 -1.19924 0
M  V30 18 H 2.73832 -0.847408 4.04751 0
M  V30 19 H 4.18839 -0.138729 3.13628 0
M  V30 20 H 1.82089 -1.75861 2.05619 0
M  V30 21 H 2.62247 -0.534882 -0.0194671 0
M  V30 22 H 3.18719 -2.16621 0.129452 0
M  V30 23 H 6.67479 -2.9307 -0.771925 0
M  V30 24 H 4.55604 -3.09829 1.92705 0
M  V30 25 H 6.28483 -3.03015 2.25563 0
M  V30 26 H 5.66577 -3.96119 0.884022 0
M  V30 27 H 6.7981 0.35128 1.92137 0
M  V30 28 H 7.53591 1.88623 1.47246 0
M  V30 29 H 8.31243 0.344772 1.03305 0
M  V30 30 H 4.32408 2.99157 0.59186 0
M  V30 31 H 3.12482 3.1937 -0.798044 0
M  V30 32 H 3.17086 1.59048 -2.36726 0
M  V30 33 H 5.97866 0.585875 -2.53845 0
M  V30 END ATOM
M  V30 BEGIN BOND
M  V30 1 2 1 2
M  V30 2 1 1 18
M  V30 3 1 1 19
M  V30 4 1 2 3
M  V30 5 1 2 20
M  V30 6 1 3 4
M  V30 7 1 3 21
M  V30 8 1 3 22
M  V30 9 2 4 5
M  V30 10 1 4 6
M  V30 11 1 5 7
M  V30 12 1 5 8
M  V30 13 1 6 9
M  V30 14 1 6 10
M  V30 15 2 7 11
M  V30 16 1 7 12
M  V30 17 2 8 13
M  V30 18 1 8 14
M  V30 19 1 9 23
M  V30 20 1 10 24
M  V30 21 1 10 25
M  V30 22 1 10 26
M  V30 23 1 11 15
M  V30 24 1 11 16
M  V30 25 1 12 27
M  V30 26 1 12 28
M  V30 27 1 12 29
M  V30 28 1 13 30
M  V30 29 1 13 31
M  V30 30 1 14 32
M  V30 31 3 15 17
M  V30 32 1 16 33
M  V30 END BOND
M  V30 END CTAB
M  END
