
 OpenBabel12112017063D

  0  0  0     0  0            999 V3000
M  V30 BEGIN CTAB
M  V30 COUNTS 46 45 0 0 1
M  V30 BEGIN ATOM
M  V30 1 C 1.34362 -0.230048 0.906803 0
M  V30 2 C 2.32772 -0.252569 -0.00433174 0
M  V30 3 C 3.18922 0.920331 -0.496421 0
M  V30 4 P 2.87307 0.982122 -2.29658 0 CHG=1
M  V30 5 C 2.74521 2.22271 0.196733 0
M  V30 6 C 4.63412 0.577041 -0.119356 0
M  V30 7 C 3.74153 2.31299 -3.17297 0
M  V30 8 C 3.42011 -0.623949 -2.98353 0
M  V30 9 H 1.4823 1.08742 -2.51846 0
M  V30 10 C 5.27485 2.22634 -3.26623 0
M  V30 11 C 3.04332 2.31742 -4.54606 0
M  V30 12 O 3.32881 3.50057 -2.50825 0
M  V30 13 C 3.67407 -1.70436 -3.44496 0
M  V30 14 C 6.18757 2.92849 -2.538 0
M  V30 15 C 5.82062 1.30293 -4.34347 0
M  V30 16 C 2.33231 3.31894 -5.10362 0
M  V30 17 O 7.54217 2.89098 -2.83589 0
M  V30 18 C 5.96265 3.80256 -1.33678 0
M  V30 19 C 1.50188 3.21723 -6.29794 0
M  V30 20 C 0.758452 2.13272 -6.57831 0
M  V30 21 C 1.34472 4.45613 -7.14048 0
M  V30 22 H 0.822096 -1.14356 1.1743 0
M  V30 23 H 1.02941 0.673259 1.41907 0
M  V30 24 H 2.56553 -1.2224 -0.441395 0
M  V30 25 H 1.69061 2.44048 -0.00951868 0
M  V30 26 H 3.29247 3.0941 -0.149201 0
M  V30 27 H 2.889 2.17773 1.28215 0
M  V30 28 H 5.01112 -0.270809 -0.698768 0
M  V30 29 H 4.71808 0.316134 0.943021 0
M  V30 30 H 5.31405 1.40818 -0.293745 0
M  V30 31 H 3.04799 1.35837 -5.06651 0
M  V30 32 H 3.92789 4.20689 -2.79472 0
M  V30 33 H 3.86537 -2.66774 -3.8519 0
M  V30 34 H 5.09687 0.572716 -4.70261 0
M  V30 35 H 6.66675 0.719293 -3.96031 0
M  V30 36 H 6.15672 1.88651 -5.2081 0
M  V30 37 H 2.30052 4.28662 -4.60955 0
M  V30 38 H 7.66669 2.69181 -3.7775 0
M  V30 39 H 5.0821 3.52838 -0.771397 0
M  V30 40 H 5.8866 4.85435 -1.6234 0
M  V30 41 H 6.80274 3.70205 -0.637999 0
M  V30 42 H 0.769177 1.24175 -5.95885 0
M  V30 43 H 0.0825741 2.12089 -7.42985 0
M  V30 44 H 1.90374 5.30677 -6.73813 0
M  V30 45 H 0.289958 4.75439 -7.18848 0
M  V30 46 H 1.6985 4.2775 -8.16199 0
M  V30 END ATOM
M  V30 BEGIN BOND
M  V30 1 2 1 2
M  V30 2 1 1 22
M  V30 3 1 1 23
M  V30 4 1 2 3
M  V30 5 1 2 24
M  V30 6 1 3 4
M  V30 7 1 3 5
M  V30 8 1 3 6
M  V30 9 1 4 9
M  V30 10 1 4 7
M  V30 11 1 4 8
M  V30 12 1 5 25
M  V30 13 1 5 26
M  V30 14 1 5 27
M  V30 15 1 6 28
M  V30 16 1 6 29
M  V30 17 1 6 30
M  V30 18 1 7 10
M  V30 19 1 7 11
M  V30 20 1 7 12
M  V30 21 3 8 13
M  V30 22 2 10 14
M  V30 23 1 10 15
M  V30 24 2 11 16
M  V30 25 1 11 31
M  V30 26 1 12 32
M  V30 27 1 13 33
M  V30 28 1 14 17
M  V30 29 1 14 18
M  V30 30 1 15 34
M  V30 31 1 15 35
M  V30 32 1 15 36
M  V30 33 1 16 19
M  V30 34 1 16 37
M  V30 35 1 17 38
M  V30 36 1 18 39
M  V30 37 1 18 40
M  V30 38 1 18 41
M  V30 39 2 19 20
M  V30 40 1 19 21
M  V30 41 1 20 42
M  V30 42 1 20 43
M  V30 43 1 21 44
M  V30 44 1 21 45
M  V30 45 1 21 46
M  V30 END BOND
M  V30 END CTAB
M  END
