
 OpenBabel12112017273D

  0  0  0     0  0            999 V3000
M  V30 BEGIN CTAB
M  V30 COUNTS 46 45 0 0 1
M  V30 BEGIN ATOM
M  V30 1 C 1.28078 0.0252766 0.989197 0
M  V30 2 C 2.26561 -0.254234 0.123083 0
M  V30 3 C 3.12403 0.731354 -0.685842 0
M  V30 4 P 2.80296 0.281791 -2.42698 0 CHG=1
M  V30 5 C 2.67629 2.17607 -0.399976 0
M  V30 6 C 4.56843 0.513863 -0.22404 0
M  V30 7 C 3.67069 1.28812 -3.66203 0
M  V30 8 C 3.35865 -1.44038 -2.62324 0
M  V30 9 H 1.41214 0.309348 -2.67014 0
M  V30 10 C 5.20806 1.17054 -3.72156 0
M  V30 11 C 2.97196 0.890214 -4.97305 0
M  V30 12 O 3.26557 2.61945 -3.37063 0
M  V30 13 C 3.63203 -2.60081 -2.73972 0
M  V30 14 C 6.12328 2.04851 -3.22479 0
M  V30 15 C 5.7485 -0.0231207 -4.4909 0
M  V30 16 C 2.26301 1.68244 -5.79497 0
M  V30 17 O 7.47816 1.9202 -3.49759 0
M  V30 18 C 5.90162 3.23504 -2.32964 0
M  V30 19 C 1.42399 1.23746 -6.90253 0
M  V30 20 C 0.674367 0.122568 -6.84567 0
M  V30 21 C 1.2626 2.17496 -8.07131 0
M  V30 22 H 0.761517 -0.775124 1.50887 0
M  V30 23 H 0.962578 1.03635 1.21768 0
M  V30 24 H 2.50863 -1.30888 -0.0153806 0
M  V30 25 H 1.62253 2.32083 -0.665253 0
M  V30 26 H 3.22433 2.90953 -0.984881 0
M  V30 27 H 2.81663 2.44807 0.651457 0
M  V30 28 H 4.94937 -0.464595 -0.535575 0
M  V30 29 H 4.65096 0.566805 0.868437 0
M  V30 30 H 5.24893 1.2604 -0.627736 0
M  V30 31 H 2.97232 -0.182658 -5.18252 0
M  V30 32 H 3.87363 3.21208 -3.84013 0
M  V30 33 H 3.84087 -3.64561 -2.83483 0
M  V30 34 H 5.02376 -0.823637 -4.62622 0
M  V30 35 H 6.59495 -0.479151 -3.95143 0
M  V30 36 H 6.09104 0.285246 -5.48207 0
M  V30 37 H 2.23806 2.7545 -5.61163 0
M  V30 38 H 7.60317 1.45331 -4.33785 0
M  V30 39 H 5.01741 3.14068 -1.71206 0
M  V30 40 H 5.83392 4.1584 -2.90759 0
M  V30 41 H 6.74021 3.33577 -1.62769 0
M  V30 42 H 0.686645 -0.546493 -5.992 0
M  V30 43 H -0.00833235 -0.13504 -7.65193 0
M  V30 44 H 1.81983 3.10558 -7.93774 0
M  V30 45 H 0.207222 2.44389 -8.2023 0
M  V30 46 H 1.61408 1.70407 -8.99649 0
M  V30 END ATOM
M  V30 BEGIN BOND
M  V30 1 2 1 2
M  V30 2 1 1 22
M  V30 3 1 1 23
M  V30 4 1 2 3
M  V30 5 1 2 24
M  V30 6 1 3 4
M  V30 7 1 3 5
M  V30 8 1 3 6
M  V30 9 1 4 9
M  V30 10 1 4 7
M  V30 11 1 4 8
M  V30 12 1 5 25
M  V30 13 1 5 26
M  V30 14 1 5 27
M  V30 15 1 6 28
M  V30 16 1 6 29
M  V30 17 1 6 30
M  V30 18 1 7 10
M  V30 19 1 7 11
M  V30 20 1 7 12
M  V30 21 3 8 13
M  V30 22 2 10 14
M  V30 23 1 10 15
M  V30 24 2 11 16
M  V30 25 1 11 31
M  V30 26 1 12 32
M  V30 27 1 13 33
M  V30 28 1 14 17
M  V30 29 1 14 18
M  V30 30 1 15 34
M  V30 31 1 15 35
M  V30 32 1 15 36
M  V30 33 1 16 19
M  V30 34 1 16 37
M  V30 35 1 17 38
M  V30 36 1 18 39
M  V30 37 1 18 40
M  V30 38 1 18 41
M  V30 39 2 19 20
M  V30 40 1 19 21
M  V30 41 1 20 42
M  V30 42 1 20 43
M  V30 43 1 21 44
M  V30 44 1 21 45
M  V30 45 1 21 46
M  V30 END BOND
M  V30 END CTAB
M  END
