
 OpenBabel12112015543D

  0  0  0     0  0            999 V3000
M  V30 BEGIN CTAB
M  V30 COUNTS 43 45 0 0 1
M  V30 BEGIN ATOM
M  V30 1 C 2.28514 0.701557 1.7723 0
M  V30 2 C 2.94831 0.191716 0.494125 0
M  V30 3 B 3.17002 1.30417 -0.721228 0 CHG=-1
M  V30 4 N 4.17347 2.3428 -0.205097 0
M  V30 5 C 1.70704 1.7693 -1.1188 0
M  V30 6 C 3.66285 0.698819 -2.21825 0
M  V30 7 C 3.94072 3.5547 0.136308 0
M  V30 8 C 1.29265 0.592335 -2.06201 0
M  V30 9 C 5.09545 0.128156 -2.08917 0
M  V30 10 C 3.64848 1.67125 -3.48282 0
M  V30 11 C 2.50504 -0.319915 -2.48964 0
M  V30 12 H 0.461869 -0.0515699 -1.69097 0
M  V30 13 C 1.19225 0.944359 -3.5777 0
M  V30 14 H 4.07455 1.04535 -4.3023 0
M  V30 15 N 4.4974 2.85069 -3.3409 0
M  V30 16 C 2.21516 2.04539 -3.99709 0
M  V30 17 C 2.80913 -1.76823 -2.00977 0
M  V30 18 C 1.83098 -0.393199 -3.88805 0
M  V30 19 C -0.224856 1.20668 -4.09235 0
M  V30 20 H 2.17823 -0.144737 2.48929 0
M  V30 21 H 1.24468 1.06037 1.59614 0
M  V30 22 H 2.87127 1.50898 2.25153 0
M  V30 23 H 2.23731 -0.592904 0.181357 0
M  V30 24 H 3.92385 -0.262783 0.761822 0
M  V30 25 H 1.80128 2.75689 -1.59074 0
M  V30 26 H 0.966777 1.93599 -0.318798 0
M  V30 27 H 4.76634 4.15445 0.515667 0
M  V30 28 H 2.94865 3.99039 0.0914522 0
M  V30 29 H 5.19724 -0.565743 -1.23212 0
M  V30 30 H 5.8139 0.959734 -1.91407 0
M  V30 31 H 5.40268 -0.404268 -3.01169 0
M  V30 32 H 4.04828 3.52219 -2.67897 0
M  V30 33 H 4.56714 3.33396 -4.27565 0
M  V30 34 H 2.24427 2.1576 -5.1051 0
M  V30 35 H 1.86881 3.0286 -3.6271 0
M  V30 36 H 3.29276 -1.87874 -1.02578 0
M  V30 37 H 3.55274 -2.19548 -2.71829 0
M  V30 38 H 1.90602 -2.41065 -2.03977 0
M  V30 39 H 2.4389 -0.52919 -4.80582 0
M  V30 40 H 1.03205 -1.18251 -3.85737 0
M  V30 41 H -0.586232 2.19465 -3.73244 0
M  V30 42 H -0.926416 0.427716 -3.71813 0
M  V30 43 H -0.240784 1.19288 -5.20174 0
M  V30 END ATOM
M  V30 BEGIN BOND
M  V30 1 1 1 2
M  V30 2 1 1 20
M  V30 3 1 1 21
M  V30 4 1 1 22
M  V30 5 1 2 3
M  V30 6 1 2 23
M  V30 7 1 2 24
M  V30 8 1 3 4
M  V30 9 1 3 5
M  V30 10 1 3 6
M  V30 11 2 4 7
M  V30 12 1 5 8
M  V30 13 1 5 25
M  V30 14 1 5 26
M  V30 15 1 11 6
M  V30 16 1 6 9
M  V30 17 1 6 10
M  V30 18 1 7 27
M  V30 19 1 7 28
M  V30 20 1 8 12
M  V30 21 1 8 11
M  V30 22 1 8 13
M  V30 23 1 9 29
M  V30 24 1 9 30
M  V30 25 1 9 31
M  V30 26 1 10 16
M  V30 27 1 10 15
M  V30 28 1 10 14
M  V30 29 1 11 18
M  V30 30 1 11 17
M  V30 31 1 16 13
M  V30 32 1 13 18
M  V30 33 1 13 19
M  V30 34 1 15 32
M  V30 35 1 15 33
M  V30 36 1 16 34
M  V30 37 1 16 35
M  V30 38 1 17 36
M  V30 39 1 17 37
M  V30 40 1 17 38
M  V30 41 1 18 39
M  V30 42 1 18 40
M  V30 43 1 19 41
M  V30 44 1 19 42
M  V30 45 1 19 43
M  V30 END BOND
M  V30 END CTAB
M  END
