
 OpenBabel12112015543D

  0  0  0     0  0            999 V3000
M  V30 BEGIN CTAB
M  V30 COUNTS 23 24 0 0 0
M  V30 BEGIN ATOM
M  V30 1 C 2.55571 -0.352275 -1.11785 0
M  V30 2 C 2.41624 -0.373646 0.40061 0
M  V30 3 C 3.4509 -1.27231 1.02689 0
M  V30 4 C 4.96081 -0.985207 0.884489 0
M  V30 5 N 3.12006 -2.47858 1.41938 0 CHG=1
M  V30 6 C 5.65686 -2.24208 0.24339 0
M  V30 7 C 4.25938 -3.22978 1.90551 0
M  V30 8 N 2.66311 -3.23323 0.486746 0
M  V30 9 C 5.00546 -3.52482 0.809883 0
M  V30 10 F 1.72732 -4.25005 0.90676 0
M  V30 11 C 3.7758 -3.9469 0.0106465 0
M  V30 12 N 3.80636 -4.81545 -0.934859 0
M  V30 13 H 1.7285 0.201537 -1.57006 0
M  V30 14 H 2.56259 -1.36177 -1.54123 0
M  V30 15 H 3.48889 0.134301 -1.41976 0
M  V30 16 H 1.40736 -0.696051 0.681296 0
M  V30 17 H 2.56147 0.638643 0.792398 0
M  V30 18 H 5.13137 -0.0921306 0.277532 0
M  V30 19 H 5.3757 -0.776958 1.87987 0
M  V30 20 H 5.5035 -2.20118 -0.843224 0
M  V30 21 H 6.73335 -2.23052 0.433119 0
M  V30 22 H 4.77369 -2.78375 2.75946 0
M  V30 23 H 4.75178 -5.20224 -1.0836 0
M  V30 END ATOM
M  V30 BEGIN BOND
M  V30 1 1 1 2
M  V30 2 1 1 13
M  V30 3 1 1 14
M  V30 4 1 1 15
M  V30 5 1 2 3
M  V30 6 1 2 16
M  V30 7 1 2 17
M  V30 8 2 3 5
M  V30 9 1 3 4
M  V30 10 1 6 4
M  V30 11 1 4 18
M  V30 12 1 4 19
M  V30 13 1 5 7
M  V30 14 1 5 8
M  V30 15 1 9 6
M  V30 16 1 6 20
M  V30 17 1 6 21
M  V30 18 2 7 9
M  V30 19 1 7 22
M  V30 20 1 11 8
M  V30 21 1 8 10
M  V30 22 1 9 11
M  V30 23 2 11 12
M  V30 24 1 12 23
M  V30 END BOND
M  V30 END CTAB
M  END
