
 OpenBabel11262018343D

  0  0  0     0  0            999 V3000
M  V30 BEGIN CTAB
M  V30 COUNTS 37 37 0 0 0
M  V30 BEGIN ATOM
M  V30 1 C 0.871049 -0.0771471 -0.10346 0
M  V30 2 C 2.39069 -0.0742525 -0.102019 0
M  V30 3 C 2.93887 0.447195 1.2224 0
M  V30 4 C 4.46742 0.457979 1.22838 0
M  V30 5 C 4.98437 0.963689 2.5717 0
M  V30 6 C 6.511 0.958809 2.63609 0
M  V30 7 C 7.03813 1.47928 3.97342 0
M  V30 8 C 6.59893 0.62879 5.16199 0
M  V30 9 N 7.13017 1.17269 6.41109 0
M  V30 10 C 6.49966 2.0965 7.22789 0
M  V30 11 C 8.31887 0.845942 6.93516 0
M  V30 12 C 7.349 2.34276 8.26847 0
M  V30 13 N 8.47288 1.55939 8.05902 0 CHG=1
M  V30 14 C 9.65713 1.50625 8.90397 0
M  V30 15 H 0.494097 -0.450792 -1.06013 0
M  V30 16 H 0.477633 0.933302 0.0472941 0
M  V30 17 H 0.479647 -0.719701 0.691884 0
M  V30 18 H 2.75294 0.55057 -0.926258 0
M  V30 19 H 2.75465 -1.09276 -0.279925 0
M  V30 20 H 2.57251 -0.181648 2.04371 0
M  V30 21 H 2.5645 1.46218 1.4044 0
M  V30 22 H 4.84153 1.09645 0.419684 0
M  V30 23 H 4.84477 -0.555753 1.04688 0
M  V30 24 H 4.57208 0.32272 3.35787 0
M  V30 25 H 4.61361 1.97977 2.75389 0
M  V30 26 H 6.91077 1.59035 1.83305 0
M  V30 27 H 6.89014 -0.0552455 2.46178 0
M  V30 28 H 6.71217 2.5163 4.12065 0
M  V30 29 H 8.13427 1.50591 3.93667 0
M  V30 30 H 6.95304 -0.402559 5.05421 0
M  V30 31 H 5.50916 0.596824 5.26038 0
M  V30 32 H 5.52499 2.46482 6.95487 0
M  V30 33 H 9.03011 0.140251 6.52189 0
M  V30 34 H 7.29955 2.98119 9.13374 0
M  V30 35 H 9.55237 2.19211 9.74878 0
M  V30 36 H 10.5268 1.79278 8.30704 0
M  V30 37 H 9.77983 0.485203 9.27379 0
M  V30 END ATOM
M  V30 BEGIN BOND
M  V30 1 1 1 2
M  V30 2 1 1 15
M  V30 3 1 1 16
M  V30 4 1 1 17
M  V30 5 1 2 3
M  V30 6 1 2 18
M  V30 7 1 2 19
M  V30 8 1 3 4
M  V30 9 1 3 20
M  V30 10 1 3 21
M  V30 11 1 4 5
M  V30 12 1 4 22
M  V30 13 1 4 23
M  V30 14 1 5 6
M  V30 15 1 5 24
M  V30 16 1 5 25
M  V30 17 1 6 7
M  V30 18 1 6 26
M  V30 19 1 6 27
M  V30 20 1 7 8
M  V30 21 1 7 28
M  V30 22 1 7 29
M  V30 23 1 8 9
M  V30 24 1 8 30
M  V30 25 1 8 31
M  V30 26 1 9 10
M  V30 27 1 9 11
M  V30 28 2 10 12
M  V30 29 1 10 32
M  V30 30 2 13 11
M  V30 31 1 11 33
M  V30 32 1 12 13
M  V30 33 1 12 34
M  V30 34 1 13 14
M  V30 35 1 14 35
M  V30 36 1 14 36
M  V30 37 1 14 37
M  V30 END BOND
M  V30 END CTAB
M  END
