
 OpenBabel12112017063D

  0  0  0     0  0            999 V3000
M  V30 BEGIN CTAB
M  V30 COUNTS 61 61 0 0 1
M  V30 BEGIN ATOM
M  V30 1 C 0.6143 -0.285461 -1.85367 0
M  V30 2 C 2.118 -0.248142 -1.84356 0
M  V30 3 C 2.94188 -0.755242 -0.890273 0
M  V30 4 C 4.55267 -0.850742 -1.01648 0
M  V30 5 C 2.27658 -1.12118 0.425913 0
M  V30 6 C 5.15975 -2.32598 -0.684747 0
M  V30 7 C 4.98355 -0.265751 -2.46869 0
M  V30 8 C 5.13119 0.0515371 0.133716 0
M  V30 9 C 6.00774 -3.15852 -1.38767 0
M  V30 10 C 4.84295 -2.82736 0.733925 0
M  V30 11 C 4.60665 -0.778133 -3.70208 0
M  V30 12 C 5.92319 0.888053 -2.40333 0
M  V30 13 C 6.39247 -4.59899 -0.855631 0
M  V30 14 C 6.71655 -2.89333 -2.6929 0
M  V30 15 N 4.98622 -0.153371 -4.95839 0 CHG=1
M  V30 16 C 3.82959 -2.10949 -3.82387 0
M  V30 17 C 5.58651 2.13336 -2.02719 0
M  V30 18 C 5.36289 -5.63969 -1.31907 0
M  V30 19 C 7.80252 -5.1036 -1.22663 0
M  V30 20 C 4.95143 1.1976 -5.13811 0
M  V30 21 C 5.30435 -0.922119 -6.04127 0
M  V30 22 C 2.56222 -2.09248 -4.6736 0
M  V30 23 C 5.27302 1.7951 -6.35566 0
M  V30 24 C 5.56985 -0.368799 -7.29222 0
M  V30 25 C 5.56708 1.00471 -7.45079 0
M  V30 26 H 0.252045 -0.110071 -2.87339 0
M  V30 27 H 0.191659 0.490099 -1.21165 0
M  V30 28 H 0.239751 -1.2718 -1.55813 0
M  V30 29 H 2.50099 0.195953 -2.75111 0
M  V30 30 H 1.24439 -0.76053 0.499775 0
M  V30 31 H 2.77456 -0.637935 1.27042 0
M  V30 32 H 2.23634 -2.203 0.565761 0
M  V30 33 H 4.90435 -0.298626 1.14496 0
M  V30 34 H 4.7164 1.0641 0.113603 0
M  V30 35 H 6.22685 0.106197 0.0929105 0
M  V30 36 H 4.24765 -2.16199 1.35011 0
M  V30 37 H 5.77303 -2.93434 1.30666 0
M  V30 38 H 4.30001 -3.77547 0.7151 0
M  V30 39 H 6.96447 0.659121 -2.62239 0
M  V30 40 H 6.39941 -4.61378 0.238749 0
M  V30 41 H 6.69177 -1.86801 -3.0266 0
M  V30 42 H 6.31506 -3.54619 -3.47243 0
M  V30 43 H 7.79078 -3.09265 -2.63166 0
M  V30 44 H 3.56969 -2.53106 -2.85215 0
M  V30 45 H 4.49156 -2.85528 -4.27117 0
M  V30 46 H 4.57634 2.4073 -1.73949 0
M  V30 47 H 6.3476 2.90329 -1.93631 0
M  V30 48 H 5.1792 -5.57919 -2.39633 0
M  V30 49 H 4.40616 -5.50365 -0.805526 0
M  V30 50 H 5.70438 -6.65751 -1.09508 0
M  V30 51 H 7.89763 -5.29838 -2.30128 0
M  V30 52 H 8.02066 -6.04925 -0.71625 0
M  V30 53 H 8.57235 -4.38586 -0.92523 0
M  V30 54 H 4.61319 1.82276 -4.32263 0
M  V30 55 H 5.34689 -1.9988 -5.92357 0
M  V30 56 H 1.71747 -1.66138 -4.13649 0
M  V30 57 H 2.28496 -3.12463 -4.92303 0
M  V30 58 H 2.68048 -1.54787 -5.61291 0
M  V30 59 H 5.26277 2.87915 -6.45424 0
M  V30 60 H 5.77588 -1.01515 -8.14386 0
M  V30 61 H 5.77874 1.45326 -8.42166 0
M  V30 END ATOM
M  V30 BEGIN BOND
M  V30 1 1 1 2
M  V30 2 1 1 26
M  V30 3 1 1 27
M  V30 4 1 1 28
M  V30 5 2 2 3
M  V30 6 1 2 29
M  V30 7 1 3 4
M  V30 8 1 3 5
M  V30 9 1 4 6
M  V30 10 1 4 7
M  V30 11 1 4 8
M  V30 12 1 5 30
M  V30 13 1 5 31
M  V30 14 1 5 32
M  V30 15 2 6 9
M  V30 16 1 6 10
M  V30 17 2 7 11
M  V30 18 1 7 12
M  V30 19 1 8 33
M  V30 20 1 8 34
M  V30 21 1 8 35
M  V30 22 1 9 13
M  V30 23 1 9 14
M  V30 24 1 10 36
M  V30 25 1 10 37
M  V30 26 1 10 38
M  V30 27 1 11 15
M  V30 28 1 11 16
M  V30 29 2 12 17
M  V30 30 1 12 39
M  V30 31 1 13 18
M  V30 32 1 13 19
M  V30 33 1 13 40
M  V30 34 1 14 41
M  V30 35 1 14 42
M  V30 36 1 14 43
M  V30 37 2 15 20
M  V30 38 1 15 21
M  V30 39 1 16 22
M  V30 40 1 16 44
M  V30 41 1 16 45
M  V30 42 1 17 46
M  V30 43 1 17 47
M  V30 44 1 18 48
M  V30 45 1 18 49
M  V30 46 1 18 50
M  V30 47 1 19 51
M  V30 48 1 19 52
M  V30 49 1 19 53
M  V30 50 1 20 23
M  V30 51 1 20 54
M  V30 52 2 24 21
M  V30 53 1 21 55
M  V30 54 1 22 56
M  V30 55 1 22 57
M  V30 56 1 22 58
M  V30 57 2 23 25
M  V30 58 1 23 59
M  V30 59 1 25 24
M  V30 60 1 24 60
M  V30 61 1 25 61
M  V30 END BOND
M  V30 END CTAB
M  END
