
 OpenBabel11262019033D

  0  0  0     0  0            999 V3000
M  V30 BEGIN CTAB
M  V30 COUNTS 25 24 0 0 0
M  V30 BEGIN ATOM
M  V30 1 F 1.47064 0.157328 1.48794 0
M  V30 2 P 2.54227 0.00631626 0.178324 0 CHG=-1
M  V30 3 C 1.2608 0.786916 -1.0707 0
M  V30 4 C 3.84395 -0.991707 1.27252 0
M  V30 5 C 3.33161 1.78358 0.522355 0
M  V30 6 F 1.91766 -1.56092 -0.123111 0
M  V30 7 F 3.45262 -0.347839 -1.21822 0
M  V30 8 C -0.0677738 0.0726325 -1.21792 0
M  V30 9 F 0.896738 2.07657 -0.753262 0
M  V30 10 F 1.83395 0.886808 -2.34176 0
M  V30 11 C 5.23992 -1.438 0.670885 0
M  V30 12 F 4.11242 -0.326034 2.45056 0
M  V30 13 F 3.26049 -2.17379 1.67211 0
M  V30 14 C 4.41838 2.26124 -0.461399 0
M  V30 15 F 2.3871 2.79197 0.631885 0
M  V30 16 F 3.86282 1.89367 1.78178 0
M  V30 17 F -0.187215 -1.04563 -0.444571 0
M  V30 18 F -1.09439 0.906395 -0.819816 0
M  V30 19 F -0.265529 -0.267973 -2.54112 0
M  V30 20 F 5.42944 -1.17999 -0.66224 0
M  V30 21 F 6.26136 -0.793073 1.32969 0
M  V30 22 F 5.43119 -2.80554 0.858436 0
M  V30 23 F 4.7816 1.36649 -1.42228 0
M  V30 24 F 4.01217 3.39373 -1.13089 0
M  V30 25 F 5.56703 2.55399 0.242294 0
M  V30 END ATOM
M  V30 BEGIN BOND
M  V30 1 1 1 2
M  V30 2 1 2 3
M  V30 3 1 2 4
M  V30 4 1 2 5
M  V30 5 1 2 6
M  V30 6 1 2 7
M  V30 7 1 3 8
M  V30 8 1 3 9
M  V30 9 1 3 10
M  V30 10 1 4 11
M  V30 11 1 4 12
M  V30 12 1 4 13
M  V30 13 1 5 14
M  V30 14 1 5 15
M  V30 15 1 5 16
M  V30 16 1 8 17
M  V30 17 1 8 18
M  V30 18 1 8 19
M  V30 19 1 11 20
M  V30 20 1 11 21
M  V30 21 1 11 22
M  V30 22 1 14 23
M  V30 23 1 14 24
M  V30 24 1 14 25
M  V30 END BOND
M  V30 END CTAB
M  END
