
 OpenBabel11262019033D

  0  0  0     0  0            999 V3000
M  V30 BEGIN CTAB
M  V30 COUNTS 9 8 0 0 0
M  V30 BEGIN ATOM
M  V30 1 N 1.23005 -0.0707048 0.00663477 0
M  V30 2 C 2.38735 -0.0700529 0.00698791 0
M  V30 3 B 3.93249 -0.0695253 0.00703498 0 CHG=-1
M  V30 4 C 4.44724 1.23317 -0.645791 0
M  V30 5 C 4.44779 -0.155715 1.4612 0
M  V30 6 C 4.44709 -1.28583 -0.79497 0
M  V30 7 N 4.8327 2.20882 -1.13488 0
M  V30 8 N 4.83378 -0.220239 2.55039 0
M  V30 9 N 4.83215 -2.19689 -1.39585 0
M  V30 END ATOM
M  V30 BEGIN BOND
M  V30 1 3 1 2
M  V30 2 1 2 3
M  V30 3 1 3 4
M  V30 4 1 3 5
M  V30 5 1 3 6
M  V30 6 3 4 7
M  V30 7 3 5 8
M  V30 8 3 6 9
M  V30 END BOND
M  V30 END CTAB
M  END
