
 OpenBabel12112017063D

  0  0  0     0  0            999 V3000
M  V30 BEGIN CTAB
M  V30 COUNTS 46 45 0 0 1
M  V30 BEGIN ATOM
M  V30 1 N 7.06009 -1.92049 -5.76326 0
M  V30 2 N 6.68861 -2.10346 -4.58829 0
M  V30 3 O 7.09287 -1.28001 -3.64475 0
M  V30 4 C 6.66912 -1.29918 -2.34728 0
M  V30 5 C 7.0705 -0.252216 -1.53432 0
M  V30 6 C 5.78832 -2.4543 -1.90622 0
M  V30 7 C 6.63487 -0.0274126 -0.0334708 0
M  V30 8 C 7.97778 0.767902 -2.19625 0
M  V30 9 B 7.20918 1.40426 0.736718 0 CHG=-1
M  V30 10 N 5.18527 -0.0241248 -0.0300397 0
M  V30 11 C 7.09352 -1.20598 0.865506 0
M  V30 12 C 8.84198 1.4668 0.871992 0
M  V30 13 C 6.55507 2.90042 0.346333 0
M  V30 14 H 6.85444 1.29502 1.87062 0
M  V30 15 O 4.54913 -0.0450514 0.980604 0
M  V30 16 C 9.5638 0.679205 1.95384 0
M  V30 17 C 9.58803 2.21814 0.0364229 0
M  V30 18 C 5.01266 3.03478 0.423776 0
M  V30 19 C 7.16528 4.03651 1.20217 0
M  V30 20 C 10.4375 1.56727 2.84702 0
M  V30 21 N 4.50885 2.97787 1.79702 0
M  V30 22 H 6.74013 -2.54597 -6.51255 0
M  V30 23 H 5.56914 -3.14866 -2.74089 0
M  V30 24 H 4.816 -2.09858 -1.51438 0
M  V30 25 H 6.31607 -3.09476 -1.18007 0
M  V30 26 H 8.20337 0.61876 -3.26837 0
M  V30 27 H 8.96667 0.691285 -1.72649 0
M  V30 28 H 7.53025 1.77025 -2.15621 0
M  V30 29 H 8.1897 -1.34645 0.829242 0
M  V30 30 H 6.61969 -2.16232 0.616244 0
M  V30 31 H 6.78382 -1.03808 1.92196 0
M  V30 32 H 6.82044 3.11825 -0.700683 0
M  V30 33 H 10.2169 -0.0823791 1.47497 0
M  V30 34 H 8.83613 0.15351 2.60627 0
M  V30 35 H 9.14466 2.81529 -0.75129 0
M  V30 36 H 10.6689 2.25148 0.109467 0
M  V30 37 H 4.49625 2.29886 -0.220485 0
M  V30 38 H 4.73735 4.03077 0.0100229 0
M  V30 39 H 6.91931 3.90336 2.27694 0
M  V30 40 H 6.7704 5.01989 0.867586 0
M  V30 41 H 8.26455 4.10377 1.11606 0
M  V30 42 H 11.2445 2.05689 2.26223 0
M  V30 43 H 10.9296 0.944897 3.62336 0
M  V30 44 H 9.82501 2.34992 3.34032 0
M  V30 45 H 4.6824 2.04299 2.2225 0
M  V30 46 H 3.47655 3.14453 1.78397 0
M  V30 END ATOM
M  V30 BEGIN BOND
M  V30 1 2 1 2
M  V30 2 1 1 22
M  V30 3 1 2 3
M  V30 4 1 3 4
M  V30 5 2 4 5
M  V30 6 1 4 6
M  V30 7 1 5 7
M  V30 8 1 5 8
M  V30 9 1 6 23
M  V30 10 1 6 24
M  V30 11 1 6 25
M  V30 12 1 7 9
M  V30 13 1 7 10
M  V30 14 1 7 11
M  V30 15 1 8 26
M  V30 16 1 8 27
M  V30 17 1 8 28
M  V30 18 1 9 14
M  V30 19 1 9 12
M  V30 20 1 9 13
M  V30 21 2 10 15
M  V30 22 1 11 29
M  V30 23 1 11 30
M  V30 24 1 11 31
M  V30 25 2 12 17
M  V30 26 1 12 16
M  V30 27 1 13 18
M  V30 28 1 13 19
M  V30 29 1 13 32
M  V30 30 1 16 20
M  V30 31 1 16 33
M  V30 32 1 16 34
M  V30 33 1 17 35
M  V30 34 1 17 36
M  V30 35 1 18 21
M  V30 36 1 18 37
M  V30 37 1 18 38
M  V30 38 1 19 39
M  V30 39 1 19 40
M  V30 40 1 19 41
M  V30 41 1 20 42
M  V30 42 1 20 43
M  V30 43 1 20 44
M  V30 44 1 21 45
M  V30 45 1 21 46
M  V30 END BOND
M  V30 END CTAB
M  END
