
 OpenBabel12112015543D

  0  0  0     0  0            999 V3000
M  V30 BEGIN CTAB
M  V30 COUNTS 18 17 0 0 0
M  V30 BEGIN ATOM
M  V30 1 O 1.20411 -0.0746862 0.188386 0
M  V30 2 S 2.66391 -0.111453 0.00935595 0
M  V30 3 C 3.16353 1.64557 0.0892176 0
M  V30 4 N 3.39134 -0.74342 1.26772 0 CHG=-1
M  V30 5 O 3.05051 -0.585998 -1.3168 0
M  V30 6 F 2.90591 2.17892 1.32386 0
M  V30 7 F 4.48819 1.85064 -0.1517 0
M  V30 8 C 2.40812 2.46565 -0.943227 0
M  V30 9 S 4.96595 -0.873939 1.1644 0
M  V30 10 C 5.21013 -1.99946 2.59873 0
M  V30 11 O 5.5086 -1.6056 0.0181968 0
M  V30 12 O 5.7146 0.335589 1.51505 0
M  V30 13 F 4.04287 -2.33763 3.22681 0
M  V30 14 F 5.80383 -3.18079 2.25663 0
M  V30 15 F 6.00095 -1.44833 3.56826 0
M  V30 16 H 1.32528 2.40093 -0.806988 0
M  V30 17 H 2.65948 2.14072 -1.95783 0
M  V30 18 H 2.69085 3.52003 -0.856748 0
M  V30 END ATOM
M  V30 BEGIN BOND
M  V30 1 2 1 2
M  V30 2 2 2 5
M  V30 3 1 2 3
M  V30 4 1 2 4
M  V30 5 1 3 6
M  V30 6 1 3 7
M  V30 7 1 3 8
M  V30 8 1 4 9
M  V30 9 1 8 16
M  V30 10 1 8 17
M  V30 11 1 8 18
M  V30 12 2 9 11
M  V30 13 2 9 12
M  V30 14 1 9 10
M  V30 15 1 10 13
M  V30 16 1 10 14
M  V30 17 1 10 15
M  V30 END BOND
M  V30 END CTAB
M  END
